Version 4
SHEET 1 880 680
WIRE -80 0 -96 0
WIRE 16 0 0 0
WIRE 32 0 16 0
WIRE 128 0 112 0
WIRE 64 80 64 64
WIRE 128 80 128 0
WIRE 208 80 128 80
WIRE 288 80 208 80
WIRE -368 96 -448 96
WIRE 16 96 16 0
WIRE 32 96 16 96
WIRE -448 112 -448 96
WIRE -368 112 -368 96
WIRE -304 112 -368 112
WIRE 128 112 128 80
WIRE 128 112 96 112
WIRE -80 128 -96 128
WIRE 32 128 0 128
WIRE -368 144 -368 112
WIRE 0 144 0 128
WIRE 64 160 64 144
WIRE -560 176 -560 160
WIRE -448 208 -448 192
WIRE -368 240 -368 224
WIRE -304 240 -368 240
WIRE 0 240 0 224
WIRE -368 256 -368 240
WIRE -560 272 -560 256
WIRE -368 352 -368 336
FLAG -560 272 0
FLAG -560 160 +5V
FLAG 64 64 +5V
FLAG 64 160 0
FLAG -368 352 0
FLAG -304 240 Vinp
FLAG 208 80 Vout
FLAG -448 208 0
FLAG -304 112 Vinn
FLAG 0 240 0
FLAG -96 128 Vinp
FLAG -96 0 Vinn
SYMBOL Opamps\\OP747 400 -96 R0
SYMATTR InstName U1
SYMBOL res -384 128 R0
WINDOW 0 36 17 Left 2
WINDOW 3 34 54 Left 2
SYMATTR InstName R3
SYMATTR Value 0.001
SYMBOL voltage -368 240 R0
WINDOW 0 -65 31 Left 2
WINDOW 3 -96 141 Left 2
WINDOW 123 0 0 Left 0
WINDOW 39 0 0 Left 0
SYMATTR InstName V1
SYMATTR Value PWL(0 0 1m 5)
SYMBOL voltage -560 160 R0
SYMATTR InstName V2
SYMATTR Value 5
SYMBOL res 16 -16 R90
WINDOW 0 0 56 VBottom 2
WINDOW 3 32 56 VTop 2
SYMATTR InstName R1
SYMATTR Value 5.1k
SYMBOL res 128 -16 R90
WINDOW 0 0 90 VBottom 2
WINDOW 3 -29 23 VTop 2
SYMATTR InstName R2
SYMATTR Value 10k
SYMBOL res -464 96 R0
WINDOW 3 49 62 VRight 2
SYMATTR InstName R4
SYMATTR Value 22.73
SYMBOL res 16 112 R90
WINDOW 0 0 56 VBottom 2
WINDOW 3 32 56 VTop 2
SYMATTR InstName R5
SYMATTR Value 5.1k
SYMBOL res 16 240 R180
WINDOW 0 -34 69 Left 2
WINDOW 3 -46 39 Left 2
SYMATTR InstName R6
SYMATTR Value 10k
SYMBOL Opamps\\OP07 320 160 R0
SYMATTR InstName U2
SYMBOL Opamps\\MAX4352 64 48 R0
SYMATTR InstName U4
TEXT -600 56 Left 2 ;Vout = (Vinp-Vinn) (R2/R1)
TEXT -640 316 Left 2 !.tran 1.1m
TEXT -328 288 Left 2 ;PULSE(0 5 12.5u 100n 100n 12.5u 25u 100)
TEXT -328 312 Left 2 ;PULSE(0 5 250u 100n 100n 250u 500u 100)
TEXT -328 336 Left 2 ;PWL(0 0 9m 5)
