Version 4
SHEET 1 1424 680
WIRE 48 80 48 64
WIRE 352 160 288 160
WIRE 416 160 352 160
WIRE 592 160 416 160
WIRE 48 176 48 160
WIRE 48 176 -32 176
WIRE 128 176 48 176
WIRE 192 176 128 176
WIRE -176 192 -176 176
WIRE -32 192 -32 176
WIRE 320 192 288 192
WIRE 592 256 592 240
WIRE -32 272 -32 256
WIRE 48 272 48 256
WIRE -176 288 -176 272
WIRE 320 352 320 192
WIRE 320 352 288 352
WIRE 416 352 320 352
WIRE 592 352 416 352
WIRE 48 368 48 352
WIRE 48 368 -32 368
WIRE 128 368 48 368
WIRE 192 368 128 368
WIRE -32 384 -32 368
WIRE 352 384 352 160
WIRE 352 384 288 384
WIRE 592 448 592 432
WIRE -32 464 -32 448
FLAG -176 288 0
FLAG -176 176 VCC
FLAG 48 64 VCC
FLAG 48 256 VCC
FLAG 128 176 MCU_EN
FLAG 128 368 MCU_IO0
FLAG 416 160 UART_DTRN
FLAG 416 352 UART_RTSN
FLAG 592 256 0
FLAG 592 448 0
FLAG -32 272 0
FLAG -32 464 0
SYMBOL AutoGenerated\\2N7002 240 176 R0
SYMATTR InstName U1
SYMBOL AutoGenerated\\2N7002 240 368 R0
SYMATTR InstName U2
SYMBOL res 32 256 R0
SYMATTR InstName R1
SYMATTR Value 10k
SYMBOL res 32 64 R0
SYMATTR InstName R2
SYMATTR Value 10k
SYMBOL voltage -176 176 R0
SYMATTR InstName V1
SYMATTR Value 3.3
SYMBOL voltage 592 144 R0
WINDOW 123 0 0 Left 0
WINDOW 39 0 0 Left 0
SYMATTR InstName V2
SYMATTR Value PWL(0 0 100u 0 101u 3.3 200u 3.3 201u 3.3 300u 3.3 301u 0 400u 0)
SYMBOL voltage 592 336 R0
WINDOW 123 0 0 Left 0
WINDOW 39 0 0 Left 0
SYMATTR InstName V3
SYMATTR Value PWL(0 0 100u 0 101u 3.3 200u 3.3 201u 0 300u 0 301u 3.3 400u 3.3)
SYMBOL cap -48 192 R0
SYMATTR InstName C1
SYMATTR Value 0.1µ
SYMBOL cap -48 384 R0
SYMATTR InstName C2
SYMATTR Value 0.1µ
TEXT -208 472 Left 2 !.tran 400u
TEXT 256 -144 Left 2 ;DTR RTS  EN IO0\n 0     0      1   1\n 1     1      1   1\n 1     0      0   1\n 0     1      1   0
